tau_benchmark_results/validation_salazar_scaling_w1.0_20260714_151624.csv
name,n_bus,n_pv,n_pq,pv_ratio,rx_ratio,eta,rho,rho_diag,rho_corr,contraction,nr_converged,nr_iter,nr_time_ms,tpf_converged,tpf_outer_iter,tpf_inner_iter_total,tpf_time_ms,max_v_error,mean_v_error,max_angle_error_deg,max_pv_v_error,speedup,passed,error
sz_500_r000,499,1,498,0.002004008016032064,5.822222222222223,2.252796205568953,1.6566663614918986,1.6566664056344709,1.6566663614918986,0.31076828044547616,True,4,119.87649998627603,True,9,46,350.1854999922216,5.453987992343201e-07,2.6661396343168897e-08,0.0002794865090987031,5.453987991232978e-07,0.3423228545697602,True,
sz_500_r002,499,10,489,0.02004008016032064,5.822222222222223,5.963803642195984,2.122254968857636,2.121668351153148,2.122254968857636,0.2623576727505002,True,5,102.40800003521144,True,8,43,379.0012000827119,6.029786642214319e-07,1.828414799162375e-07,0.00028426004306236763,6.026005457959727e-07,0.27020494925309546,True,
sz_500_r005,499,25,474,0.050100200400801605,5.822222222222223,7.262529751093274,2.131076595229786,2.0779688094827025,2.131076595229786,0.3035164648954004,True,5,68.38680000510067,True,9,50,410.3718000696972,5.981622733797209e-07,1.0682713967443951e-07,0.0002929837583289796,5.980929999038764e-07,0.16664595372656188,True,
sz_500_r010,499,50,449,0.10020040080160321,5.822222222222223,7.174902162225938,2.157182456706576,2.162850907787625,2.157182456706576,0.33684020550391863,True,6,35.253999987617135,True,9,57,243.10239998158067,8.775332237531686e-07,3.3910633685888164e-07,0.0004283026787064159,8.775332237531686e-07,0.14501707918263354,True,
